/*--------------------------------*- C++ -*----------------------------------*\
| =========                 |                                                 |
| \\      /  F ield         | OpenFOAM: The Open Source CFD Toolbox           |
|  \\    /   O peration     | Version:  v2212                                 |
|   \\  /    A nd           | Website:  www.openfoam.com                      |
|    \\/     M anipulation  |                                                 |
\*---------------------------------------------------------------------------*/
FoamFile
{
    version     2.0;
    format      ascii;
    class       dictionary;
    object      controlDict;
}
// * * * * * * * * * * * * * * * * * * * * * * * * * * * * * * * * * * * * * //

application     interFoam;

startFrom       startTime;

startTime       0;

stopAt          endTime;

endTime         120;

deltaT          0.01;

writeControl    timeStep;

writeInterval   500;

purgeWrite      0;

writeFormat     binary;

writePrecision  6;

writeCompression off;

timeFormat      general;

timePrecision   6;

runTimeModifiable yes;

functions
{
    forces
    {
        type            forces;
        libs            (forces);
        patches         ("hull.*");
        rhoInf          998.8;
        log             on;
        writeControl    timeStep;
        writeInterval   1;
        CofR            (1.1633 -0.485500407525 0.1459);
    }

    yPlus
    {
    	type            yPlus;
		libs            (fieldFunctionObjects);

		executeControl  writeTime;
		writeControl    writeTime;
	}
}


// ************************************************************************* //
